Circuit: * C:\Users\andre\OneDrive\Uni_Work\HighTemp\Pressure\Draft2.asc

Direct Newton iteration for .op point succeeded.
.step r=0.001
.step r=10.001
.step r=20.001
.step r=30.001
.step r=40.001
.step r=50.001
.step r=60.001
.step r=70.001
.step r=80.001
.step r=90.001
.step r=100

Date: Fri Feb 05 14:03:06 2021
Total elapsed time: 0.475 seconds.

tnom = 27
temp = 27
method = modified trap
totiter = 2107
traniter = 2096
tranpoints = 1049
accept = 1049
rejected = 0
matrix size = 15
fillins = 11
solver = Normal
Matrix Compiler1: 1.10 KB object code size  0.2/0.1/[0.1]
Matrix Compiler2: 1.47 KB object code size  0.1/0.1/[0.1]

