Circuit: * C:\Users\andre\OneDrive\Uni_Work\HighTemp\Pressure\VoltageScale.asc

WARNING: Specified period is not longer than the sum of Trise, Tfall, and Ton for v1.  Increasing period to 10.1
Limiting fall time of source v1 to 1.91791e-015
Direct Newton iteration for .op point succeeded.

Date: Thu Nov 12 12:11:49 2020
Total elapsed time: 0.037 seconds.

tnom = 27
temp = 27
method = modified trap
totiter = 2105
traniter = 2102
tranpoints = 1052
accept = 1050
rejected = 2
matrix size = 3
fillins = 0
solver = Normal
Matrix Compiler1: off  [0.0]/0.0/0.0
Matrix Compiler2: 175 bytes object code size  0.0/0.0/[0.0]

