Circuit: * C:\Users\Andrew\OneDrive\Uni_Work\HighTemp\SaltCorrosion\SpiceSim\const_current.asc

WARNING: Less than two connections to node 2V2.  This node is used by V4.
Direct Newton iteration failed to find .op point.  (Use ".option noopiter" to skip.)
Starting Gmin stepping
Gmin = 10
Gmin = 1.07374
Gmin = 0.115292
Gmin = 0.0123794
Gmin = 0.00132923
Gmin = 0.000142725
Gmin = 1.5325e-005
Gmin = 1.6455e-006
Gmin = 1.76685e-007
Gmin = 1.89714e-008
Gmin = 2.03704e-009
Gmin = 2.18725e-010
Gmin = 2.34854e-011
Gmin = 2.52173e-012
Gmin = 2.70769e-013
Gmin = 0
Gmin stepping succeeded in finding the operating point.


Date: Fri Feb 05 15:09:07 2021
Total elapsed time: 0.169 seconds.

tnom = 27
temp = 27
method = modified trap
totiter = 2490
traniter = 2096
tranpoints = 1049
accept = 1049
rejected = 0
matrix size = 21
fillins = 8
solver = Normal
Matrix Compiler1: 1.06 KB object code size  0.2/0.1/[0.1]
Matrix Compiler2: 1.73 KB object code size  0.2/0.2/[0.1]

